iidm/iidm-xml-converter/src/test/resources/twt-CONTROL.xiidm
<?xml version="1.0" encoding="UTF-8"?>
<iidm:network xmlns:iidm="http://www.itesla_project.eu/schema/iidm/1_0" id="three-windings-transformer" caseDate="2018-03-05T13:30:30.486+01:00" forecastDistance="0" sourceFormat="test">
    <iidm:substation id="SUBSTATION">
        <iidm:threeWindingsTransformer id="3WT">
            <iidm:ratioTapChanger2 tapPosition="2" regulating="true" targetV="33.0">
                <iidm:terminalRef id="LOAD_33"/>
            </iidm:ratioTapChanger2>
            <iidm:ratioTapChanger3 tapPosition="0" regulating="true" targetV="11.0">
                <iidm:terminalRef id="LOAD_11"/>
            </iidm:ratioTapChanger3>
        </iidm:threeWindingsTransformer>
    </iidm:substation>
</iidm:network>
